<?xml version="1.0"?>
<routes>
    <vType id="stable_car" accel="2.0" decel="4.5" maxSpeed="14.0" color="green"/>
    <vType id="fast_bait" accel="3.0" decel="4.5" maxSpeed="25.0" color="red"/>
    <route id="route_east" edges="31982182#1"/>
    <route id="route_west" edges="30405358#0"/>
    <vehicle id="target_car" type="stable_car" route="route_east" depart="0" departPos="700.0" />
  
    <vehicle id="bait_car" type="fast_bait" route="route_west" depart="0" departPos="500.0"/>
    <vehicle id="my_car" type="stable_car" route="route_east" depart="0" departPos="500.0"/>
</routes>
